# generated using pymatgen
data_Li4SiO4
_symmetry_space_group_name_H-M   P2_1
_cell_length_a   11.70898000
_cell_length_b   6.15152800
_cell_length_c   16.89851675
_cell_angle_alpha   90.00000000
_cell_angle_beta   98.96011794
_cell_angle_gamma   90.00000000
_symmetry_Int_Tables_number   4
_chemical_formula_structural   Li4SiO4
_chemical_formula_sum   'Li56 Si14 O56'
_cell_volume   1202.31524757
_cell_formula_units_Z   14
loop_
 _symmetry_equiv_pos_site_id
 _symmetry_equiv_pos_as_xyz
  1  'x, y, z'
  2  '-x, y+1/2, -z'
loop_
 _atom_type_symbol
 _atom_type_oxidation_number
  Li+  1.0
  Si4+  4.0
  O2-  -2.0
loop_
 _atom_site_type_symbol
 _atom_site_label
 _atom_site_symmetry_multiplicity
 _atom_site_fract_x
 _atom_site_fract_y
 _atom_site_fract_z
 _atom_site_occupancy
  Li+  Li0  2  0.00290000  0.74862900  0.01201200  1
  Li+  Li1  2  0.02608800  0.24990400  0.57015800  1
  Li+  Li2  2  0.04819000  0.47460000  0.29129300  1
  Li+  Li3  2  0.05193100  0.03054800  0.29590800  1
  Li+  Li4  2  0.05247700  0.45697800  0.84528700  1
  Li+  Li5  2  0.08830100  0.95733700  0.87462200  1
  Li+  Li6  2  0.13554000  0.74499300  0.14370600  1
  Li+  Li7  2  0.14046400  0.75070400  0.73342000  1
  Li+  Li8  2  0.14232200  0.24870500  0.70428600  1
  Li+  Li9  2  0.18754700  0.49703400  0.45410900  1
  Li+  Li10  2  0.18778600  0.00298700  0.45439300  1
  Li+  Li11  2  0.19033000  0.47164500  0.01095100  1
  Li+  Li12  2  0.19418100  0.03281200  0.01573100  1
  Li+  Li13  2  0.23828500  0.54142900  0.59764900  1
  Li+  Li14  2  0.23833600  0.95852400  0.59765100  1
  Li+  Li15  2  0.27094700  0.25041600  0.30381700  1
  Li+  Li16  2  0.27246000  0.74471600  0.86052000  1
  Li+  Li17  2  0.33525000  0.46699800  0.73330700  1
  Li+  Li18  2  0.33536700  0.03244900  0.73353000  1
  Li+  Li19  2  0.33724600  0.00810600  0.17295400  1
  Li+  Li20  2  0.33738700  0.49203500  0.17282100  1
  Li+  Li21  2  0.38292400  0.50361300  0.40773000  1
  Li+  Li22  2  0.38298100  0.99651500  0.40779300  1
  Li+  Li23  2  0.41038200  0.25036000  0.01681900  1
  Li+  Li24  2  0.41802100  0.74999500  0.54981600  1
  Li+  Li25  2  0.45235700  0.74995300  0.27662900  1
  Li+  Li26  2  0.47601800  0.00593000  0.88304900  1
  Li+  Li27  2  0.47627900  0.49430600  0.88306700  1
  Si4+  Si28  2  0.04057100  0.75023900  0.57838800  1
  Si4+  Si29  2  0.10532700  0.24886900  0.14379200  1
  Si4+  Si30  2  0.20149700  0.75174500  0.29111300  1
  Si4+  Si31  2  0.24599100  0.24835700  0.86127700  1
  Si4+  Si32  2  0.34158300  0.75178900  0.00653300  1
  Si4+  Si33  2  0.38410200  0.24996500  0.57135900  1
  Si4+  Si34  2  0.47754300  0.75001900  0.71362100  1
  O2-  O35  2  0.00993500  0.24593800  0.20791600  1
  O2-  O36  2  0.06365200  0.75706200  0.24285700  1
  O2-  O37  2  0.07010400  0.53158900  0.63705800  1
  O2-  O38  2  0.07018000  0.96867900  0.63725500  1
  O2-  O39  2  0.07277500  0.46430900  0.08352200  1
  O2-  O40  2  0.07538700  0.02899700  0.08526200  1
  O2-  O41  2  0.09056100  0.24993100  0.46998900  1
  O2-  O42  2  0.13285600  0.75004400  0.51391100  1
  O2-  O43  2  0.15332800  0.24574400  0.92722800  1
  O2-  O44  2  0.20192300  0.75698300  0.96143000  1
  O2-  O45  2  0.21306500  0.46444100  0.80179700  1
  O2-  O46  2  0.21548100  0.52770200  0.34504100  1
  O2-  O47  2  0.21554400  0.02811400  0.80334400  1
  O2-  O48  2  0.21721300  0.97400000  0.34598600  1
  O2-  O49  2  0.23817300  0.25112500  0.18735100  1
  O2-  O50  2  0.28386900  0.74994100  0.22105600  1
  O2-  O51  2  0.30304600  0.24987500  0.64697400  1
  O2-  O52  2  0.33469800  0.74992400  0.67545800  1
  O2-  O53  2  0.34512000  0.47096400  0.51846500  1
  O2-  O54  2  0.34517400  0.02894500  0.51853300  1
  O2-  O55  2  0.35750400  0.52760100  0.06023100  1
  O2-  O56  2  0.35939800  0.97412300  0.06113300  1
  O2-  O57  2  0.38070600  0.25107700  0.90098300  1
  O2-  O58  2  0.42075600  0.75000800  0.93416000  1
  O2-  O59  2  0.44422900  0.25009100  0.35904500  1
  O2-  O60  2  0.47752600  0.75001100  0.39480500  1
  O2-  O61  2  0.49800100  0.52915200  0.76963400  1
  O2-  O62  2  0.49815100  0.97083100  0.76968100  1
